/*---------------------------------------------------------------------------*\
| =========                 |                                                 |
| \\      /  F ield         | OpenFOAM: The Open Source CFD Toolbox           |
|  \\    /   O peration     | Version:  1.0.2                                 |
|   \\  /    A nd           | Web:      http://www.openfoam.org               |
|    \\/     M anipulation  |                                                 |
\*---------------------------------------------------------------------------*/

// FoamX Case Dictionary.

FoamFile
{
    version         2.0;
    format          ascii;

    root            "/home/Panara/OpenFOAM/panara-1.0.2/run";
    case            "Channel_1s";
    instance        "constant/polyMesh";
    local           "";

    class           dictionary;
    object          blockMeshDict;
}

// * * * * * * * * * * * * * * * * * * * * * * * * * * * * * * * * * * * * * //

arguments       "/home/Panara/OpenFOAM/panara-1.0.2/run/Channel_1s";

// convertToMeters
convertToMeters 1;

// list of coordinates of block vertices
vertices        
(
    (0   0   0)
    (0.2 0   0)
    (0.4 0   0)
    (0.6 0   0)
    (0   0.1 0)
    (0.2 0.1 0)
    (0.4 0.1 0)
    (0.6 0.1 0)
    (0   0.2 0)
    (0.2 0.2 0)
    (0.4 0.2 0)
    (0.6 0.2 0)
    (0   0   0.02)
    (0.2 0   0.02)
    (0.4 0   0.02)
    (0.6 0   0.02)
    (0   0.1 0.02)
    (0.2 0.1 0.02)
    (0.4 0.1 0.02)
    (0.6 0.1 0.02)
    (0   0.2 0.02)
    (0.2 0.2 0.02)
    (0.4 0.2 0.02)
    (0.6 0.2 0.02)
);

// list of block descriptions
blocks          
(
    hex (0 1 5 4 12 13 17 16) (40 20 1) simpleGrading (1 1 1)
    hex (2 3 7 6 14 15 19 18) (40 20 1) simpleGrading (1 1 1)
    hex (4 5 9 8 16 17 21 20) (40 20 1) simpleGrading (1 1 1)
    hex (5 6 10 9 17 18 22 21) (40 20 1) simpleGrading (1 1 1)
    hex (6 7 11 10 18 19 23 22) (40 20 1) simpleGrading (1 1 1)
);

// list of curved edge descriptions
edges           
(
);

// list of patch descriptions
patches         
(
    wall top
    (		
        (8 20 21 9)
	(9 21 22 10)
	(10 22 23 11)
    )
    empty frontAndBack
    (
	(0 4 5 1)
	(12 13 17 16)
	(2 6 7 3)
	(14 15 19 18)
	(4 8 9 5)
	(16 17 21 20)
	(5 9 10 6)
	(17 18 22 21)
	(6 10 11 7)
	(18 19 23 22)
    )
    patch inlet
    (
	(0 12 16 4)
	(4 16 20 8)
    )
    patch outlet 
    (
	(11 23 19 7)
	(7 19 15 3)
    )
    wall obstacle
    (
	(5 17 13 1)
	(6 18 17 5)
	(2 14 18 6)
    )
    symmetryPlane mitte
    (
	(1 13 12 0)
	(3 15 14 2)
    )
);

// list of master-slave patch pairs to be merged
mergePatchPairs 
(
);


// ************************************************************************* //
